LTspice 24.0.12 for Windows
Circuit: * C:\Users\Welcome\Desktop\CK\BITS\Second Year\Sem 2\MuE\Slides\assignment\Q2 Draft.asc
Start Time: Sun Mar 23 02:03:58 2025
solver = Normal
Maximum thread count: 8
tnom = 27
temp = 27
method = modified trap
Direct Newton iteration for .op point succeeded.
Total elapsed time: 0.067 seconds.

